2024_89_CemigReconfigurationCases/1_SEsCemig/NOG02/NOG02CargaMT_Dez.dss
new load.3009000004M1 bus1=BMT117189718.1.2.3,Phases=3,kv=13.8,kW=237.64638,pf=0.92,Vminpu=0.93,Vmaxpu=1.5,model=8,zipv=[0.5,0,0.5,1,0,0,0],daily=A4-7,status=variable
new load.3009000508M1 bus1=BMT101961057.1.2.3,Phases=3,kv=13.8,kW=7.47068,pf=0.92,Vminpu=0.93,Vmaxpu=1.5,model=8,zipv=[0.5,0,0.5,1,0,0,0],daily=A4-1,status=variable
new load.3009000510M1 bus1=BMT101961043.1.2.3,Phases=3,kv=13.8,kW=210.2153,pf=0.92,Vminpu=0.93,Vmaxpu=1.5,model=8,zipv=[0.5,0,0.5,1,0,0,0],daily=A4-5,status=variable
new load.3009001336M1 bus1=BMT101988686.1.2.3,Phases=3,kv=13.8,kW=132.01234,pf=0.92,Vminpu=0.93,Vmaxpu=1.5,model=8,zipv=[0.5,0,0.5,1,0,0,0],daily=A4-5,status=variable
new load.3009001337M1 bus1=BMT151648191.1.2.3,Phases=3,kv=13.8,kW=50.89548,pf=0.92,Vminpu=0.93,Vmaxpu=1.5,model=8,zipv=[0.5,0,0.5,1,0,0,0],daily=A4-3,status=variable
new load.3009001347M1 bus1=BMT170307705.1.2.3,Phases=3,kv=13.8,kW=95.4149,pf=0.92,Vminpu=0.93,Vmaxpu=1.5,model=8,zipv=[0.5,0,0.5,1,0,0,0],daily=A4-4,status=variable
new load.3009004638M1 bus1=BMT101972481.1.2.3,Phases=3,kv=13.8,kW=2.09704,pf=0.92,Vminpu=0.93,Vmaxpu=1.5,model=8,zipv=[0.5,0,0.5,1,0,0,0],daily=A4-1,status=variable
new load.3009007932M1 bus1=BMT101967679.1.2.3,Phases=3,kv=13.8,kW=13.62142,pf=0.92,Vminpu=0.93,Vmaxpu=1.5,model=8,zipv=[0.5,0,0.5,1,0,0,0],daily=A4-2,status=variable
new load.3009008286M1 bus1=BMT157269883.1.2.3,Phases=3,kv=13.8,kW=5.30812,pf=0.92,Vminpu=0.93,Vmaxpu=1.5,model=8,zipv=[0.5,0,0.5,1,0,0,0],daily=A4-1,status=variable
new load.3009009479M1 bus1=BMT171455072.1.2.3,Phases=3,kv=13.8,kW=128.42504,pf=0.92,Vminpu=0.93,Vmaxpu=1.5,model=8,zipv=[0.5,0,0.5,1,0,0,0],daily=A4-5,status=variable
new load.3009009784M1 bus1=BMT101960833.1.2.3,Phases=3,kv=13.8,kW=3.01448,pf=0.92,Vminpu=0.93,Vmaxpu=1.5,model=8,zipv=[0.5,0,0.5,1,0,0,0],daily=A4-1,status=variable
new load.3009011242M1 bus1=BMT101958859.1.2.3,Phases=3,kv=13.8,kW=33.96274,pf=0.92,Vminpu=0.93,Vmaxpu=1.5,model=8,zipv=[0.5,0,0.5,1,0,0,0],daily=A4-2,status=variable
new load.3009011376M1 bus1=BMT101967315.1.2.3,Phases=3,kv=13.8,kW=18.48012,pf=0.92,Vminpu=0.93,Vmaxpu=1.5,model=8,zipv=[0.5,0,0.5,1,0,0,0],daily=A4-1,status=variable
new load.3009012213M1 bus1=BMT101958327.1.2.3,Phases=3,kv=13.8,kW=9.69878,pf=0.92,Vminpu=0.93,Vmaxpu=1.5,model=8,zipv=[0.5,0,0.5,1,0,0,0],daily=A4-1,status=variable
new load.3009012565M1 bus1=BMT159223771.1.2.3,Phases=3,kv=13.8,kW=164.99082,pf=0.92,Vminpu=0.93,Vmaxpu=1.5,model=8,zipv=[0.5,0,0.5,1,0,0,0],daily=A4-5,status=variable
new load.3009012706M1 bus1=BMT151268568.1.2.3,Phases=3,kv=13.8,kW=36.10534,pf=0.92,Vminpu=0.93,Vmaxpu=1.5,model=8,zipv=[0.5,0,0.5,1,0,0,0],daily=A4-3,status=variable
new load.3009014281M1 bus1=BMT101987181.1.2.3,Phases=3,kv=13.8,kW=9.6258,pf=0.92,Vminpu=0.93,Vmaxpu=1.5,model=8,zipv=[0.5,0,0.5,1,0,0,0],daily=A4-2,status=variable
new load.3009014282M1 bus1=BMT151268279.1.2.3,Phases=3,kv=13.8,kW=39.87538,pf=0.92,Vminpu=0.93,Vmaxpu=1.5,model=8,zipv=[0.5,0,0.5,1,0,0,0],daily=A4-3,status=variable
new load.3009014557M1 bus1=BMT101961134.1.2.3,Phases=3,kv=13.8,kW=108.20002,pf=0.92,Vminpu=0.93,Vmaxpu=1.5,model=8,zipv=[0.5,0,0.5,1,0,0,0],daily=A4-3,status=variable
new load.3009014762M1 bus1=BMT101967616.1.2.3,Phases=3,kv=13.8,kW=162.22522,pf=0.92,Vminpu=0.93,Vmaxpu=1.5,model=8,zipv=[0.5,0,0.5,1,0,0,0],daily=A4-6,status=variable
new load.3009015079M1 bus1=BMT150341659.1.2.3,Phases=3,kv=13.8,kW=48.5796,pf=0.92,Vminpu=0.93,Vmaxpu=1.5,model=8,zipv=[0.5,0,0.5,1,0,0,0],daily=A4-3,status=variable
new load.3009015367M1 bus1=BMT101978844.1.2.3,Phases=3,kv=13.8,kW=417.30256,pf=0.92,Vminpu=0.93,Vmaxpu=1.5,model=8,zipv=[0.5,0,0.5,1,0,0,0],daily=A4-6,status=variable
new load.3009015914M1 bus1=BMT101960273.1.2.3,Phases=3,kv=13.8,kW=12.55828,pf=0.92,Vminpu=0.93,Vmaxpu=1.5,model=8,zipv=[0.5,0,0.5,1,0,0,0],daily=A4-2,status=variable
new load.3009015967M1 bus1=BMT101976863.1.2.3,Phases=3,kv=13.8,kW=89.90084,pf=0.92,Vminpu=0.93,Vmaxpu=1.5,model=8,zipv=[0.5,0,0.5,1,0,0,0],daily=A4-3,status=variable
new load.3009016029M1 bus1=BMT101959258.1.2.3,Phases=3,kv=13.8,kW=72.18996,pf=0.92,Vminpu=0.93,Vmaxpu=1.5,model=8,zipv=[0.5,0,0.5,1,0,0,0],daily=A4-3,status=variable
new load.3009016047M1 bus1=BMT151268479.1.2.3,Phases=3,kv=13.8,kW=5.14668,pf=0.92,Vminpu=0.93,Vmaxpu=1.5,model=8,zipv=[0.5,0,0.5,1,0,0,0],daily=A4-1,status=variable
new load.3009016096M1 bus1=BMT174831284.1.2.3,Phases=3,kv=13.8,kW=14.26374,pf=0.92,Vminpu=0.93,Vmaxpu=1.5,model=8,zipv=[0.5,0,0.5,1,0,0,0],daily=A4-2,status=variable
new load.3009016098M1 bus1=BMT151602145.1.2.3,Phases=3,kv=13.8,kW=6.97682,pf=0.92,Vminpu=0.93,Vmaxpu=1.5,model=8,zipv=[0.5,0,0.5,1,0,0,0],daily=A4-2,status=variable
new load.3009016113M1 bus1=BMT150341593.1.2.3,Phases=3,kv=13.8,kW=26.97026,pf=0.92,Vminpu=0.93,Vmaxpu=1.5,model=8,zipv=[0.5,0,0.5,1,0,0,0],daily=A4-3,status=variable
new load.3009016210M1 bus1=BMT101967644.1.2.3,Phases=3,kv=13.8,kW=45.24042,pf=0.92,Vminpu=0.93,Vmaxpu=1.5,model=8,zipv=[0.5,0,0.5,1,0,0,0],daily=A4-3,status=variable
new load.3009016295M1 bus1=BMT101961099.1.2.3,Phases=3,kv=13.8,kW=68.6395,pf=0.92,Vminpu=0.93,Vmaxpu=1.5,model=8,zipv=[0.5,0,0.5,1,0,0,0],daily=A4-3,status=variable
new load.3009016443M1 bus1=BMT101977563.1.2.3,Phases=3,kv=13.8,kW=82.20362,pf=0.92,Vminpu=0.93,Vmaxpu=1.5,model=8,zipv=[0.5,0,0.5,1,0,0,0],daily=A4-4,status=variable
new load.3009016457M1 bus1=BMT101962695.1.2.3,Phases=3,kv=13.8,kW=177.45914,pf=0.92,Vminpu=0.93,Vmaxpu=1.5,model=8,zipv=[0.5,0,0.5,1,0,0,0],daily=A4-4,status=variable
new load.3009017407M1 bus1=BMT151268483.1.2.3,Phases=3,kv=13.8,kW=55.19804,pf=0.92,Vminpu=0.93,Vmaxpu=1.5,model=8,zipv=[0.5,0,0.5,1,0,0,0],daily=A4-4,status=variable
new load.3009017464M1 bus1=BMT101960147.1.2.3,Phases=3,kv=13.8,kW=88.30582,pf=0.92,Vminpu=0.93,Vmaxpu=1.5,model=8,zipv=[0.5,0,0.5,1,0,0,0],daily=A4-3,status=variable
new load.3009018044M1 bus1=BMT151268570.1.2.3,Phases=3,kv=13.8,kW=23.6953,pf=0.92,Vminpu=0.93,Vmaxpu=1.5,model=8,zipv=[0.5,0,0.5,1,0,0,0],daily=A4-3,status=variable
new load.3009018286M1 bus1=BMT151268349.1.2.3,Phases=3,kv=13.8,kW=32.50978,pf=0.92,Vminpu=0.93,Vmaxpu=1.5,model=8,zipv=[0.5,0,0.5,1,0,0,0],daily=A4-2,status=variable
new load.3009018572M1 bus1=BMT101963549.1.2.3,Phases=3,kv=13.8,kW=0.78638,pf=0.92,Vminpu=0.93,Vmaxpu=1.5,model=8,zipv=[0.5,0,0.5,1,0,0,0],daily=A4-1,status=variable
new load.3009019323M1 bus1=BMT151268345.1.2.3,Phases=3,kv=13.8,kW=1.67826,pf=0.92,Vminpu=0.93,Vmaxpu=1.5,model=8,zipv=[0.5,0,0.5,1,0,0,0],daily=A4-1,status=variable
new load.3009019325M1 bus1=BMT101973531.1.2.3,Phases=3,kv=13.8,kW=32.96384,pf=0.92,Vminpu=0.93,Vmaxpu=1.5,model=8,zipv=[0.5,0,0.5,1,0,0,0],daily=A4-2,status=variable
new load.3009019338M1 bus1=BMT151268186.1.2.3,Phases=3,kv=13.8,kW=41.16162,pf=0.92,Vminpu=0.93,Vmaxpu=1.5,model=8,zipv=[0.5,0,0.5,1,0,0,0],daily=A4-5,status=variable
new load.3009019599M1 bus1=BMT151268188.1.2.3,Phases=3,kv=13.8,kW=52.82606,pf=0.92,Vminpu=0.93,Vmaxpu=1.5,model=8,zipv=[0.5,0,0.5,1,0,0,0],daily=A4-3,status=variable
new load.3009019821M1 bus1=BMT101961519.1.2.3,Phases=3,kv=13.8,kW=49.9452,pf=0.92,Vminpu=0.93,Vmaxpu=1.5,model=8,zipv=[0.5,0,0.5,1,0,0,0],daily=A4-2,status=variable
new load.3009019958M1 bus1=BMT150341601.1.2.3,Phases=3,kv=13.8,kW=9.51018,pf=0.92,Vminpu=0.93,Vmaxpu=1.5,model=8,zipv=[0.5,0,0.5,1,0,0,0],daily=A4-1,status=variable
new load.3009020153M1 bus1=BMT150341574.1.2.3,Phases=3,kv=13.8,kW=24.05516,pf=0.92,Vminpu=0.93,Vmaxpu=1.5,model=8,zipv=[0.5,0,0.5,1,0,0,0],daily=A4-1,status=variable
new load.3009020210M1 bus1=BMT151268149.1.2.3,Phases=3,kv=13.8,kW=11.1405,pf=0.92,Vminpu=0.93,Vmaxpu=1.5,model=8,zipv=[0.5,0,0.5,1,0,0,0],daily=A4-1,status=variable
new load.3009020400M1 bus1=BMT151268554.1.2.3,Phases=3,kv=13.8,kW=7.80962,pf=0.92,Vminpu=0.93,Vmaxpu=1.5,model=8,zipv=[0.5,0,0.5,1,0,0,0],daily=A4-2,status=variable
new load.3009020546M1 bus1=BMT151268462.1.2.3,Phases=3,kv=13.8,kW=2.09704,pf=0.92,Vminpu=0.93,Vmaxpu=1.5,model=8,zipv=[0.5,0,0.5,1,0,0,0],daily=A4-1,status=variable
new load.3009020659M1 bus1=BMT174831286.1.2.3,Phases=3,kv=13.8,kW=5.0348,pf=0.92,Vminpu=0.93,Vmaxpu=1.5,model=8,zipv=[0.5,0,0.5,1,0,0,0],daily=A4-1,status=variable
new load.3009020770M1 bus1=BMT150341666.1.2.3,Phases=3,kv=13.8,kW=16.90094,pf=0.92,Vminpu=0.93,Vmaxpu=1.5,model=8,zipv=[0.5,0,0.5,1,0,0,0],daily=A4-3,status=variable
new load.3009021443M1 bus1=BMT101982358.1.2.3,Phases=3,kv=13.8,kW=181.00956,pf=0.92,Vminpu=0.93,Vmaxpu=1.5,model=8,zipv=[0.5,0,0.5,1,0,0,0],daily=A4-7,status=variable
new load.3009021501M1 bus1=BMT150341577.1.2.3,Phases=3,kv=13.8,kW=46.40044,pf=0.92,Vminpu=0.93,Vmaxpu=1.5,model=8,zipv=[0.5,0,0.5,1,0,0,0],daily=A4-3,status=variable
new load.3009021541M1 bus1=BMT101974028.1.2.3,Phases=3,kv=13.8,kW=10.26146,pf=0.92,Vminpu=0.93,Vmaxpu=1.5,model=8,zipv=[0.5,0,0.5,1,0,0,0],daily=A4-2,status=variable
new load.3009021611M1 bus1=BMT172955567.1.2.3,Phases=3,kv=13.8,kW=107.89224,pf=0.92,Vminpu=0.93,Vmaxpu=1.5,model=8,zipv=[0.5,0,0.5,1,0,0,0],daily=A4-4,status=variable
new load.3009021644M1 bus1=BMT101982246.1.2.3,Phases=3,kv=13.8,kW=3.99748,pf=0.92,Vminpu=0.93,Vmaxpu=1.5,model=8,zipv=[0.5,0,0.5,1,0,0,0],daily=A4-1,status=variable
new load.3009021907M1 bus1=BMT101960259.1.2.3,Phases=3,kv=13.8,kW=39.5398,pf=0.92,Vminpu=0.93,Vmaxpu=1.5,model=8,zipv=[0.5,0,0.5,1,0,0,0],daily=A4-3,status=variable
new load.3009021919M1 bus1=BMT101972873.1.2.3,Phases=3,kv=13.8,kW=23.21414,pf=0.92,Vminpu=0.93,Vmaxpu=1.5,model=8,zipv=[0.5,0,0.5,1,0,0,0],daily=A4-4,status=variable
new load.3009021975M1 bus1=BMT151268572.1.2.3,Phases=3,kv=13.8,kW=11.53368,pf=0.92,Vminpu=0.93,Vmaxpu=1.5,model=8,zipv=[0.5,0,0.5,1,0,0,0],daily=A4-1,status=variable
new load.3009021978M1 bus1=BMT101962877.1.2.3,Phases=3,kv=13.8,kW=90.27718,pf=0.92,Vminpu=0.93,Vmaxpu=1.5,model=8,zipv=[0.5,0,0.5,1,0,0,0],daily=A4-4,status=variable
new load.3009022142M1 bus1=BMT101978872.1.2.3,Phases=3,kv=13.8,kW=5.11152,pf=0.92,Vminpu=0.93,Vmaxpu=1.5,model=8,zipv=[0.5,0,0.5,1,0,0,0],daily=A4-1,status=variable
new load.3009022317M1 bus1=BMT174831278.1.2.3,Phases=3,kv=13.8,kW=12.18902,pf=0.92,Vminpu=0.93,Vmaxpu=1.5,model=8,zipv=[0.5,0,0.5,1,0,0,0],daily=A4-1,status=variable
new load.3010000505M1 bus1=BMT174831281.1.2.3,Phases=3,kv=13.8,kW=434.42168,pf=0.92,Vminpu=0.93,Vmaxpu=1.5,model=8,zipv=[0.5,0,0.5,1,0,0,0],daily=A4-6,status=variable
new load.3010001858M1 bus1=BMT101967343.1.2.3,Phases=3,kv=13.8,kW=20.97698,pf=0.92,Vminpu=0.93,Vmaxpu=1.5,model=8,zipv=[0.5,0,0.5,1,0,0,0],daily=A4-2,status=variable
new load.3010026570M1 bus1=BMT151268565.1.2.3,Phases=3,kv=13.8,kW=2.09704,pf=0.92,Vminpu=0.93,Vmaxpu=1.5,model=8,zipv=[0.5,0,0.5,1,0,0,0],daily=A4-1,status=variable
new load.3010043814M1 bus1=BMT101978522.1.2.3,Phases=3,kv=13.8,kW=6.6843,pf=0.92,Vminpu=0.93,Vmaxpu=1.5,model=8,zipv=[0.5,0,0.5,1,0,0,0],daily=A4-1,status=variable
new load.3010050392M1 bus1=BMT151268561.1.2.3,Phases=3,kv=13.8,kW=5.24258,pf=0.92,Vminpu=0.93,Vmaxpu=1.5,model=8,zipv=[0.5,0,0.5,1,0,0,0],daily=A4-1,status=variable
new load.3010068940M1 bus1=BMT101972019.1.2.3,Phases=3,kv=13.8,kW=394.92536,pf=0.92,Vminpu=0.93,Vmaxpu=1.5,model=8,zipv=[0.5,0,0.5,1,0,0,0],daily=A4-6,status=variable
new load.3010080180M1 bus1=BMT101959195.1.2.3,Phases=3,kv=13.8,kW=71.9211,pf=0.92,Vminpu=0.93,Vmaxpu=1.5,model=8,zipv=[0.5,0,0.5,1,0,0,0],daily=A4-2,status=variable
new load.3010080226M1 bus1=BMT101962905.1.2.3,Phases=3,kv=13.8,kW=67.85856,pf=0.92,Vminpu=0.93,Vmaxpu=1.5,model=8,zipv=[0.5,0,0.5,1,0,0,0],daily=A4-3,status=variable
new load.3010130954M1 bus1=BMT152716209.1.2.3,Phases=3,kv=13.8,kW=5.8979,pf=0.92,Vminpu=0.93,Vmaxpu=1.5,model=8,zipv=[0.5,0,0.5,1,0,0,0],daily=A4-1,status=variable
new load.3010183182M1 bus1=BMT101967525.1.2.3,Phases=3,kv=13.8,kW=112.45958,pf=0.92,Vminpu=0.93,Vmaxpu=1.5,model=8,zipv=[0.5,0,0.5,1,0,0,0],daily=A4-4,status=variable
new load.3010194197M1 bus1=BMT101987195.1.2.3,Phases=3,kv=13.8,kW=259.84968,pf=0.92,Vminpu=0.93,Vmaxpu=1.5,model=8,zipv=[0.5,0,0.5,1,0,0,0],daily=A4-7,status=variable
new load.3010224542M1 bus1=BMT151268563.1.2.3,Phases=3,kv=13.8,kW=6.81536,pf=0.92,Vminpu=0.93,Vmaxpu=1.5,model=8,zipv=[0.5,0,0.5,1,0,0,0],daily=A4-1,status=variable
new load.3010324283M1 bus1=BMT174830577.1.2.3,Phases=3,kv=13.8,kW=17.43542,pf=0.92,Vminpu=0.93,Vmaxpu=1.5,model=8,zipv=[0.5,0,0.5,1,0,0,0],daily=A4-2,status=variable
new load.3010440318M1 bus1=BMT150341657.1.2.3,Phases=3,kv=13.8,kW=6.04176,pf=0.92,Vminpu=0.93,Vmaxpu=1.5,model=8,zipv=[0.5,0,0.5,1,0,0,0],daily=A4-1,status=variable
new load.3010447223M1 bus1=BMT101978921.1.2.3,Phases=3,kv=13.8,kW=21.62566,pf=0.92,Vminpu=0.93,Vmaxpu=1.5,model=8,zipv=[0.5,0,0.5,1,0,0,0],daily=A4-1,status=variable
new load.3010451951M1 bus1=BMT101967602.1.2.3,Phases=3,kv=13.8,kW=0.78638,pf=0.92,Vminpu=0.93,Vmaxpu=1.5,model=8,zipv=[0.5,0,0.5,1,0,0,0],daily=A4-1,status=variable
new load.3010476392M1 bus1=BMT101961085.1.2.3,Phases=3,kv=13.8,kW=29.96712,pf=0.92,Vminpu=0.93,Vmaxpu=1.5,model=8,zipv=[0.5,0,0.5,1,0,0,0],daily=A4-2,status=variable
new load.3010515267M1 bus1=BMT175584150.1.2.3,Phases=3,kv=13.8,kW=75.47662,pf=0.92,Vminpu=0.93,Vmaxpu=1.5,model=8,zipv=[0.5,0,0.5,1,0,0,0],daily=A4-5,status=variable
new load.3010820566M1 bus1=BMT101974056.1.2.3,Phases=3,kv=13.8,kW=17.98028,pf=0.92,Vminpu=0.93,Vmaxpu=1.5,model=8,zipv=[0.5,0,0.5,1,0,0,0],daily=A4-2,status=variable
new load.3011013285M1 bus1=BMT150341581.1.2.3,Phases=3,kv=13.8,kW=9.9226,pf=0.92,Vminpu=0.93,Vmaxpu=1.5,model=8,zipv=[0.5,0,0.5,1,0,0,0],daily=A4-2,status=variable
new load.3011033865M1 bus1=BMT101967301.1.2.3,Phases=3,kv=13.8,kW=6.02898,pf=0.92,Vminpu=0.93,Vmaxpu=1.5,model=8,zipv=[0.5,0,0.5,1,0,0,0],daily=A4-1,status=variable
new load.3011074287M1 bus1=BMT174830977.1.2.3,Phases=3,kv=13.8,kW=95.7009,pf=0.92,Vminpu=0.93,Vmaxpu=1.5,model=8,zipv=[0.5,0,0.5,1,0,0,0],daily=A4-3,status=variable
new load.3011100449M1 bus1=BMT159958006.1.2.3,Phases=3,kv=13.8,kW=49.61298,pf=0.92,Vminpu=0.93,Vmaxpu=1.5,model=8,zipv=[0.5,0,0.5,1,0,0,0],daily=A4-2,status=variable
new load.3011157048M1 bus1=BMT150867219.1.2.3,Phases=3,kv=13.8,kW=16.38308,pf=0.92,Vminpu=0.93,Vmaxpu=1.5,model=8,zipv=[0.5,0,0.5,1,0,0,0],daily=A4-1,status=variable
new load.3011240455M1 bus1=BMT150343451.1.2.3,Phases=3,kv=13.8,kW=88.96484,pf=0.92,Vminpu=0.93,Vmaxpu=1.5,model=8,zipv=[0.5,0,0.5,1,0,0,0],daily=A4-5,status=variable
new load.3011312058M1 bus1=BMT101961029.1.2.3,Phases=3,kv=13.8,kW=51.48896,pf=0.92,Vminpu=0.93,Vmaxpu=1.5,model=8,zipv=[0.5,0,0.5,1,0,0,0],daily=A4-2,status=variable
new load.3011377964M1 bus1=BMT101986796.1.2.3,Phases=3,kv=13.8,kW=7.60174,pf=0.92,Vminpu=0.93,Vmaxpu=1.5,model=8,zipv=[0.5,0,0.5,1,0,0,0],daily=A4-1,status=variable
new load.3011391118M1 bus1=BMT176632212.1.2.3,Phases=3,kv=13.8,kW=459.76606,pf=0.92,Vminpu=0.93,Vmaxpu=1.5,model=8,zipv=[0.5,0,0.5,1,0,0,0],daily=A4-6,status=variable
new load.3011462082M1 bus1=BMT103853682.1.2.3,Phases=3,kv=13.8,kW=23.10078,pf=0.92,Vminpu=0.93,Vmaxpu=1.5,model=8,zipv=[0.5,0,0.5,1,0,0,0],daily=A4-3,status=variable
new load.3011487025M1 bus1=BMT108288091.1.2.3,Phases=3,kv=13.8,kW=92.80086,pf=0.92,Vminpu=0.93,Vmaxpu=1.5,model=8,zipv=[0.5,0,0.5,1,0,0,0],daily=A4-3,status=variable
new load.3011622334M1 bus1=BMT164467534.1.2.3,Phases=3,kv=13.8,kW=2.2281,pf=0.92,Vminpu=0.93,Vmaxpu=1.5,model=8,zipv=[0.5,0,0.5,1,0,0,0],daily=A4-1,status=variable
new load.3011645692M1 bus1=BMT151268521.1.2.3,Phases=3,kv=13.8,kW=6.15364,pf=0.92,Vminpu=0.93,Vmaxpu=1.5,model=8,zipv=[0.5,0,0.5,1,0,0,0],daily=A4-1,status=variable
new load.3011660094M1 bus1=BMT162805293.1.2.3,Phases=3,kv=13.8,kW=3.60428,pf=0.92,Vminpu=0.93,Vmaxpu=1.5,model=8,zipv=[0.5,0,0.5,1,0,0,0],daily=A4-1,status=variable
new load.3011751861M1 bus1=BMT174831276.1.2.3,Phases=3,kv=13.8,kW=46.5413,pf=0.92,Vminpu=0.93,Vmaxpu=1.5,model=8,zipv=[0.5,0,0.5,1,0,0,0],daily=A4-3,status=variable
new load.3011813091M1 bus1=BMT148098678.1.2.3,Phases=3,kv=13.8,kW=10.35228,pf=0.92,Vminpu=0.93,Vmaxpu=1.5,model=8,zipv=[0.5,0,0.5,1,0,0,0],daily=A4-2,status=variable
new load.3011908469M1 bus1=BMT169137384.1.2.3,Phases=3,kv=13.8,kW=149.23134,pf=0.92,Vminpu=0.93,Vmaxpu=1.5,model=8,zipv=[0.5,0,0.5,1,0,0,0],daily=A4-5,status=variable
new load.3011970433M1 bus1=BMT160594081.1.2.3,Phases=3,kv=13.8,kW=60.4697,pf=0.92,Vminpu=0.93,Vmaxpu=1.5,model=8,zipv=[0.5,0,0.5,1,0,0,0],daily=A4-3,status=variable
new load.3011977876M1 bus1=BMT162016826.1.2.3,Phases=3,kv=13.8,kW=23.10078,pf=0.92,Vminpu=0.93,Vmaxpu=1.5,model=8,zipv=[0.5,0,0.5,1,0,0,0],daily=A4-3,status=variable
new load.3012003026M1 bus1=BMT149197887.1.2.3,Phases=3,kv=13.8,kW=31.78332,pf=0.92,Vminpu=0.93,Vmaxpu=1.5,model=8,zipv=[0.5,0,0.5,1,0,0,0],daily=A4-2,status=variable
new load.3012003082M1 bus1=BMT148505275.1.2.3,Phases=3,kv=13.8,kW=13.50376,pf=0.92,Vminpu=0.93,Vmaxpu=1.5,model=8,zipv=[0.5,0,0.5,1,0,0,0],daily=A4-3,status=variable
new load.3012012308M1 bus1=BMT158565025.1.2.3,Phases=3,kv=13.8,kW=7.20856,pf=0.92,Vminpu=0.93,Vmaxpu=1.5,model=8,zipv=[0.5,0,0.5,1,0,0,0],daily=A4-1,status=variable
new load.3012050346M1 bus1=BMT159097055.1.2.3,Phases=3,kv=13.8,kW=67.81546,pf=0.92,Vminpu=0.93,Vmaxpu=1.5,model=8,zipv=[0.5,0,0.5,1,0,0,0],daily=A4-6,status=variable
new load.3012130266M1 bus1=BMT150950863.1.2.3,Phases=3,kv=13.8,kW=38.45006,pf=0.92,Vminpu=0.93,Vmaxpu=1.5,model=8,zipv=[0.5,0,0.5,1,0,0,0],daily=A4-2,status=variable
new load.3012164319M1 bus1=BMT151268526.1.2.3,Phases=3,kv=13.8,kW=134.85126,pf=0.92,Vminpu=0.93,Vmaxpu=1.5,model=8,zipv=[0.5,0,0.5,1,0,0,0],daily=A4-3,status=variable
new load.3012326368M1 bus1=BMT151268190.1.2.3,Phases=3,kv=13.8,kW=265.54978,pf=0.92,Vminpu=0.93,Vmaxpu=1.5,model=8,zipv=[0.5,0,0.5,1,0,0,0],daily=A4-6,status=variable
new load.3012339416M1 bus1=BMT151673756.1.2.3,Phases=3,kv=13.8,kW=285.54842,pf=0.92,Vminpu=0.93,Vmaxpu=1.5,model=8,zipv=[0.5,0,0.5,1,0,0,0],daily=A4-5,status=variable
new load.3012530997M1 bus1=BMT162764307.1.2.3,Phases=3,kv=13.8,kW=0.72648,pf=0.92,Vminpu=0.93,Vmaxpu=1.5,model=8,zipv=[0.5,0,0.5,1,0,0,0],daily=A4-2,status=variable
new load.3012641909M1 bus1=BMT161790595.1.2.3,Phases=3,kv=13.8,kW=25.60826,pf=0.92,Vminpu=0.93,Vmaxpu=1.5,model=8,zipv=[0.5,0,0.5,1,0,0,0],daily=A4-2,status=variable
new load.3012648112M1 bus1=BMT174830903.1.2.3,Phases=3,kv=13.8,kW=19.22502,pf=0.92,Vminpu=0.93,Vmaxpu=1.5,model=8,zipv=[0.5,0,0.5,1,0,0,0],daily=A4-2,status=variable
new load.3012658041M1 bus1=BMT160067942.1.2.3,Phases=3,kv=13.8,kW=53.88044,pf=0.92,Vminpu=0.93,Vmaxpu=1.5,model=8,zipv=[0.5,0,0.5,1,0,0,0],daily=A4-3,status=variable
new load.3012739969M1 bus1=BMT101988714.1.2.3,Phases=3,kv=13.8,kW=21.1702,pf=0.92,Vminpu=0.93,Vmaxpu=1.5,model=8,zipv=[0.5,0,0.5,1,0,0,0],daily=A4-3,status=variable
new load.3012742786M1 bus1=BMT161695386.1.2.3,Phases=3,kv=13.8,kW=34.32598,pf=0.92,Vminpu=0.93,Vmaxpu=1.5,model=8,zipv=[0.5,0,0.5,1,0,0,0],daily=A4-2,status=variable
new load.3012756362M1 bus1=BMT174831158.1.2.3,Phases=3,kv=13.8,kW=64.83796,pf=0.92,Vminpu=0.93,Vmaxpu=1.5,model=8,zipv=[0.5,0,0.5,1,0,0,0],daily=A4-2,status=variable
new load.3012957410M1 bus1=BMT150341648.1.2.3,Phases=3,kv=13.8,kW=527.36496,pf=0.92,Vminpu=0.93,Vmaxpu=1.5,model=8,zipv=[0.5,0,0.5,1,0,0,0],daily=A4-6,status=variable
new load.3013005780M1 bus1=BMT161428391.1.2.3,Phases=3,kv=13.8,kW=19.2516,pf=0.92,Vminpu=0.93,Vmaxpu=1.5,model=8,zipv=[0.5,0,0.5,1,0,0,0],daily=A4-2,status=variable
new load.3013252175M1 bus1=BMT152474526.1.2.3,Phases=3,kv=13.8,kW=492.45804,pf=0.92,Vminpu=0.93,Vmaxpu=1.5,model=8,zipv=[0.5,0,0.5,1,0,0,0],daily=A4-6,status=variable
new load.3013255850M1 bus1=BMT160407060.1.2.3,Phases=3,kv=13.8,kW=69.68186,pf=0.92,Vminpu=0.93,Vmaxpu=1.5,model=8,zipv=[0.5,0,0.5,1,0,0,0],daily=A4-2,status=variable
new load.3013262136M1 bus1=BMT163864562.1.2.3,Phases=3,kv=13.8,kW=87.56218,pf=0.92,Vminpu=0.93,Vmaxpu=1.5,model=8,zipv=[0.5,0,0.5,1,0,0,0],daily=A4-3,status=variable
new load.3013294975M1 bus1=BMT167829330.1.2.3,Phases=3,kv=13.8,kW=16.30644,pf=0.92,Vminpu=0.93,Vmaxpu=1.5,model=8,zipv=[0.5,0,0.5,1,0,0,0],daily=A4-3,status=variable
new load.3013309783M1 bus1=BMT166840284.1.2.3,Phases=3,kv=13.8,kW=383.52832,pf=0.92,Vminpu=0.93,Vmaxpu=1.5,model=8,zipv=[0.5,0,0.5,1,0,0,0],daily=A4-7,status=variable
new load.3013358586M1 bus1=BMT165356882.1.2.3,Phases=3,kv=13.8,kW=116.7261,pf=0.92,Vminpu=0.93,Vmaxpu=1.5,model=8,zipv=[0.5,0,0.5,1,0,0,0],daily=A4-3,status=variable
new load.3013413248M1 bus1=BMT159684519.1.2.3,Phases=3,kv=13.8,kW=72.37514,pf=0.92,Vminpu=0.93,Vmaxpu=1.5,model=8,zipv=[0.5,0,0.5,1,0,0,0],daily=A4-2,status=variable
new load.3013873253M1 bus1=BMT168187530.1.2.3,Phases=3,kv=13.8,kW=0.63934,pf=0.92,Vminpu=0.93,Vmaxpu=1.5,model=8,zipv=[0.5,0,0.5,1,0,0,0],daily=A4-1,status=variable
new load.3014020283M1 bus1=BMT173497565.1.2.3,Phases=3,kv=13.8,kW=29.76778,pf=0.92,Vminpu=0.93,Vmaxpu=1.5,model=8,zipv=[0.5,0,0.5,1,0,0,0],daily=A4-2,status=variable
new load.3014150615M1 bus1=BMT173330535.1.2.3,Phases=3,kv=13.8,kW=3.10082,pf=0.92,Vminpu=0.93,Vmaxpu=1.5,model=8,zipv=[0.5,0,0.5,1,0,0,0],daily=A4-2,status=variable
new load.3014287605M1 bus1=BMT175584150.1.2.3,Phases=3,kv=13.8,kW=26.82526,pf=0.92,Vminpu=0.93,Vmaxpu=1.5,model=8,zipv=[0.5,0,0.5,1,0,0,0],daily=A4-3,status=variable
